 PDE   2001 0101003246.23   45.613  26.479125  *  0.69                                 358017... .0.P........       
 PDE   2001 0101005217.36AC 55.579-159.704 56                    3.30MLAEIC            012017... .3.P........       
 PDE   2001 0101011510.72PR 18.182 -67.133 23                    2.60MLRSPR            089004... .3.P........       
 PDE   2001 0101030616.67P  34.060-116.712 13                    2.80MLPAS             043011... .3.P........       
 PDE   2001 0101032245.08P  35.701-118.231 13                    2.90MLPAS             039011... .3.P........       
 PDE   2001 0101033737.21  -24.199-179.638474  D 20.814.728                            171100... .1.P........       
 PDE   2001 0101034835.65   18.879 121.238 33  N  0.905.136      5.30MwHRV             249071... M3.P........       
 PDE   2001 0101051405.69?  27.426  52.954 33  N  0.994.613                            353022... .1.P........       
 PDE   2001 0101065704.17    6.898 126.579 33  N  1.066.4987.2Z967.50MwHRV  7.40MwGS   259324.F.FM3.P........       
 PDE   2001 0101070337.52AC 66.049-149.353136                                          676008... .0.P........       
 PDE   2001 0101071140.40NZ-38.790 176.200 81                    3.80MLWEL             159016... .3.P........       
 PDE   2001 0101073243.88?   7.081 126.796 33  N  0.954.8 2                            259008... .1.P........       
 PDE   2001 0101080324.50FR 45.318   8.889  2                    2.80MLLDG             545004... .3.P........       
 PDE   2001 0101083653.15    6.710 126.726 33  N  0.925.020                            259036... .1.P........       
 PDE   2001 0101085431.58    6.631 126.899 33  N  0.945.6386.0Z416.80MwHRV             259064... M3.P........       
 PDE   2001 0101085758.94GE 44.994   7.165  8                    2.60MLGEN  2.50MLLDG  545025... .3.P........       
 PDE   2001 0101090629.80GR 34.990  23.630  5                    3.20MDATH             370004... .3.P........       
 PDE   2001 0101090937.50GR 37.400  23.760 10                    2.90MLATH             368007... .3.P........       
 PDE   2001 0101091225.92*   6.577 126.859 33  N  0.894.912                            259017... .1.P........       
 PDE   2001 0101092011.44*   6.636 126.803 33  N  1.145.016                            259027... .1.P........       
 PDE   2001 0101092533.02?  -3.788 150.634 33  N  1.174.8 8                            190011... .1.P........       
 PDE   2001 0101092650.92TT 11.261 -61.350 63                    2.30MDTRN             095004... .3.P........       
 PDE   2001 0101092801.42* -18.354 167.992 33  N  1.254.6 8                            186025... .1.P........       
 PDE   2001 0101093429.77    6.813 126.766 33  N  0.865.121                            259030... .1.P........       
 PDE   2001 0101095105.59PR 18.221 -67.127 23                    2.50MLRSPR            089004... .3.P........       
 PDE   2001 0101104516   GU-34.025 -70.652 97                    2.40MDGUC             127010... .3.P........       
 PDE   2001 0101105455.15P  33.157-115.635  1                    3.00MLPAS             043005... .3.P........       
 PDE   2001 0101115853.30NZ-39.630 178.660 12                    3.80MLWEL             160011... .3.P........       
 PDE   2001 0101120227.80FR 46.789   1.314  6  G                 3.00MLLDG  2.90MLSTR  538013... .3.P........       
 PDE   2001 0101121945.55?   6.649 127.199 33  N  0.544.4 4                            248006... .1.P........       
 PDE   2001 0101124431.22?  -0.240 134.961 33  N  1.085.0 7                            196012... .1.P........       
 PDE   2001 0101143226.37   52.507 152.835487     0.634.683                            220146... .1.P........       
 PDE   2001 0101151322.70GU-32.813 -71.604 61                    3.50MDGUC             135014... .3.P........       
 PDE   2001 0101155624.45ES 35.861  -4.534106                                          385009... .0.P........       
 PDE   2001 0101160719.38ES 36.711  -3.204  0                    1.90LgMDD             385009... .3.P........       
 PDE   2001 0101160800.38ES 36.692  -3.224  0  G                 2.70LgMDD             385012... .3.P........       
 PDE   2001 0101161527.63PR 19.071 -65.412 25                    3.20MDRSPR            090004... .3.P........       
 PDE   2001 0101175407.68  -20.795-174.396 33  N  1.074.926                            173054... .1.P........       
 PDE   2001 0101183617.58?  -4.813 153.286 33  N  1.234.4 6                            190010... .1.P........       
 PDE   2001 0101185538.10GR 34.990  23.560  5                    3.60MDATH             370006... .3.P........       
 PDE   2001 0101191221.02   43.011  17.708 10  G  1.28           3.10MLVIE             383024... .3.P........       
 PDE   2001 0101193705.38AC 62.891-149.291 64                    3.20MLPMR  2.90MLAEIC 001029... .3.P........       
 PDE   2001 0101194511.49AC 62.802-148.219 59                    3.20MLPMR  2.80MLAEIC 001037... .3.P........       
 PDE   2001 0101201952.90GR 36.080  26.130154                                          369007... .0.P........       
 PDE   2001 0101202335.70GR 35.370  23.690  5                    3.40MDATH             370005... .3.P........       
 PDE   2001 0101205917.65ES 36.661  -3.210  0  G                 2.00LgMDD             385006... .3.P........       
 PDE   2001 0101212849.65    6.410 126.881 33  N  1.165.027                            259052... .1.P........       
 PDE   2001 0101212937.38  -31.999 -71.538 82     0.625.1 1      4.80MDGUC             1350204F. .3.P........       
 PDE   2001 0101222005.78PR 19.158 -66.179 42                    2.80MDRSPR            090005... .3.P........       
 PDE   2001 0101222044.30NZ-38.130 178.820 29                    3.90MLWEL             160009... .3.P........       
 PDE   2001 0101222459.70ES 36.772  -4.059 62                                          385047... .0.P........       
 PDE   2001 0101222725.24*   6.565 127.091 33  N  1.114.614                            248017... .1.P........       
 PDE   2001 0101224126.03    6.838 126.885 33  N  0.925.030                            259050... .1.P........       
 PDE   2001 0101225929.67    6.847 126.801 33  N  0.904.925                            259046... .1.P........       
 PDE   2001 0101230605.19PR 18.995 -65.498 48                    3.20MDRSPR            090007... .3.P........       
 PDE   2001 0101233557.20GU-34.686 -72.513 27                    3.80MDGUC             135011... .3.P........       
 PDE   2001 0101234217.70GU-33.422 -70.762 79                    2.20MDGUC             127008... .3.P........       
 PDE   2001 0102011708.29*  54.544 161.251 87  *  0.964.517                            218026... .1.P........       
 PDE   2001 0102012107.43ES 36.743  -3.190  0  G                 2.90LgMDD             385011... .3.P........       
 PDE   2001 0102035630.67? -17.897 167.901 33  N  1.334.5 4                            186014... .1.P........       
 PDE   2001 0102045809.30FR 45.527   0.732  2                    2.10MLLDG             538008... .3.P........       
 PDE   2001 0102053443.30NZ-39.050 176.830 49         4.3 1      4.50MLWEL             159026... .3.P........       
 PDE   2001 0102054902.66* -18.693 169.102300  G  0.654.415                            186023... .1.P........       
 PDE   2001 0102060515.17?  -5.889 152.838 33  N  1.014.3 3                            192007... .1.P........       
 PDE   2001 0102062217.10NZ-40.600 175.750 47         4.4 1      4.10MLWEL             159027... .3.P........       
 PDE   2001 0102071529.12? -17.509 -72.278 33  N  0.94                                 1150062F. .0.P........       
 PDE   2001 0102073003.78    6.749 126.809 33  N  0.895.8556.2Z866.40MwHRV  6.30MwGS   259161.F.FM3.P........       
 PDE   2001 0102080257.30GU-31.797 -69.913142                    3.80MDGUC             137009... .3.P........       
 PDE   2001 0102081614.84   43.399-126.969 10  G  0.923.7 1                            030041... .1.P........       
 PDE   2001 0102090334.21*  -5.201 153.147 33  N  1.475.2 6                            190014... .1.P........       
 PDE   2001 0102103108.60GU-33.548 -70.254107                    2.80MDGUC             127007... .3.P........       
 PDE   2001 0102105323.28   37.218 138.431 33  N  0.934.915                            2260433.. .1.P........       
 PDE   2001 0102113847.29   51.254  15.701  5  G  1.04           2.90MLGRF  2.70MLFUR  548014... .3.P........       
 PDE   2001 0102130335.55  -14.956 167.246 97  D 71.115.027      5.40MwHRV             186119... M3.P........       
 PDE   2001 0102140351.10GU-32.602 -70.187107                    3.30MDGUC             127006... .3.P........       
 PDE   2001 0102162237.09   36.167  69.073 33  N  0.725.183      5.30MwHRV             718120... M3.P........       
 PDE   2001 0102165029.37GE 43.987   8.007  6                    2.50MLLDG  2.30MLGEN  380016... .3.P........       
 PDE   2001 0102172154.44?  -9.009 122.471 33  N  0.674.5 2                            2880083F. .1.P........       
 PDE   2001 0102173713.92P  33.301-116.204  1                    2.90MLPAS             043010... .3.P........       
 PDE   2001 0102175134.84?   5.836 127.280 33  N  1.194.7 5                            248008... .1.P........       
 PDE   2001 0102183011.45   55.187 161.939 61  *  0.994.730                            218069... .1.P........       
 PDE   2001 0102184957.90MX 15.112 -94.787 66         4.1 1      4.50MDUNM             066010... .3.P........       
 PDE   2001 0102185119.90GR 36.110  21.580  5         3.5 1      3.80MLATH  3.40MLTHE  368028... .3.P........       
 PDE   2001 0102193735.60    1.288 -27.777 10  G  0.935.0494.8Z 75.50MwHRV             406079... M3.P........       
 PDE   2001 0102202949.67   32.238 141.508 33  N  0.964.923                            211032... .1.P........       
 PDE   2001 0102203452.80GR 36.170  22.860 13                    3.50MLATH             368016... .3.P........       
 PDE   2001 0102211403   FR 46.184   8.144  2                    2.20MLLDG             544005... .3.P........       
 PDE   2001 0102214023.52   51.839 158.771 33  N  1.004.736                            218052... .1.P........       
 PDE   2001 0102231513.70FR 49.425   6.996  1  G                 3.40MLLDG  2.90MLGRF  543046... .3.P........       
 PDE   2001 0102231741.97  -11.160 162.440 33  N  1.125.1165.9Z476.00MwGS   6.00MwHRV  193034... M3.P........       
 PDE   2001 0102235138   CO  7.940 -73.150 46         3.4 1                            099006... .1.P........       
 PDE   2001 0103000114.70GR 38.610  26.180 35                    3.60MDISK  3.50MDATH  365022... .3.P........       
 PDE   2001 0103000427.92TR 40.700  30.561  9                    3.30MDISK             366008.F. .3.P........       
 PDE   2001 0103013257.83TT 10.468 -62.025 33  N                 2.70MDTRN             097004... .3.P........       
 PDE   2001 0103021851.80GR 36.120  22.830 11                    3.60MLATH             368028... .3.P........       
 PDE   2001 0103024008.60GR 35.990  23.410  5                    3.00MDATH             370005... .3.P........       
 PDE   2001 0103034320.30GU-33.500 -70.235115                    2.90MDGUC             127011... .3.P........       
 PDE   2001 0103041027.84* -15.606-173.296 33  N  0.804.611                            173018... .1.P........       
 PDE   2001 0103042811.60TR 38.195  29.740 10  G                 3.40MDISK             366008... .3.P........       
 PDE   2001 0103043754.02TR 38.185  29.478  7                    3.10MDISK             366006... .3.P........       
 PDE   2001 0103054932.28TT 16.976 -61.639 56                    2.40MDTRN             092004... .3.P........       
 PDE   2001 0103055420.82PR 19.170 -64.880 44                    3.40MDRSPR            091004... .3.P........       
 PDE   2001 0103061859.10GU-35.675 -70.908153                    3.30MDGUC             127013... .3.P........       
 PDE   2001 0103061909.25*  -8.332 -74.547110  ?  0.594.721                            112035... .1.P........       
 PDE   2001 0103080429.77*  43.266  18.098 10  G  0.74           3.30MLVIE             383013... .3.P........       
 PDE   2001 0103080818.67   44.747  22.277 33  N  0.92                                 358014... .0.P........       
 PDE   2001 0103084807.07PR 18.091 -67.288 25                    2.50MLRSPR            089004... .3.P........       
 PDE   2001 0103093254.71*  45.301 149.941 33  N  0.824.620                            221040... .1.P........       
 PDE   2001 0103100540.28?   5.485 127.067 33  N  0.974.4 4                            248008... .1.P........       
 PDE   2001 0103110540.12*  39.323  52.906 33  N  0.934.613                            338032... .1.P........       
 PDE   2001 0103111122.43   46.500  10.002 10  G  1.24           2.70MLSTR  2.70MLLDG  545029... .3.P........       
 PDE   2001 0103114203.46  -31.416 -69.344113  D 90.894.514      4.80MDGUC             137042... .3.P........       
 PDE   2001 0103122758.91  -33.496 -72.227 33  N  1.084.6 5      4.80MDGUC             1340283F. .3.P........       
 PDE   2001 0103141510.77*  51.166  15.751  5  G  1.26           2.70MLCLL  2.60MLBRG  548008... .3.P........       
 PDE   2001 0103144749.54   43.932 147.813 33  N  0.825.9995.2Z505.90MwGS   5.90MwHRV  2213624F. M3.P........       
 PDE   2001 0103150903.55% -30.853 118.135 10  G  0.45           2.80MLAUST            590006.F. .3.P........       
 PDE   2001 0103151307.88    6.695 126.866112  ?  0.884.917                            259036... .1.P........       
 PDE   2001 0103172108.77    6.500 -71.999102  *  1.034.521                            099038... .1.P........       
 PDE   2001 0103173023.50FR 42.775  -0.538  2                    2.20MLLDG  2.20MLSTR  378007... .3.P........       
 PDE   2001 0103174453.83   46.251  13.821 10  G  1.07           2.70MLVIE  2.20MLLJU  546017... .3.P........       
 PDE   2001 0103192231.91ES 36.732  -3.183  0  G                 2.40LgMDD             385012... .3.P........       
 PDE   2001 0103203857.81   -5.954 130.433 33  N  0.545.0 8                            280034... .1.P........       
 PDE   2001 0103220637.90TR 40.700  33.006  9                    3.50MDISK             366005... .3.P........       
 PDE   2001 0103223433.29   43.571  11.198 10  G  1.04           3.00MLLDG  2.90MLGEN  381059... .3.P........       
 PDE   2001 0103230253.90GR 38.830  26.140 16                    3.60MLATH  3.60MDISK  365026... .3.P........       
 PDE   2001 0103233327.19*  17.584-101.260 33  N  0.34           4.10MDUNM             058006... .3.P........       
 PDE   2001 0103234534.48ES 37.167  -3.695  0  G                 2.50LgMDD             377010... .3.P........       
 PDE   2001 0104002033.77* -25.697-176.818103  ?  1.104.716                            171038... .1.P........       
 PDE   2001 0104003521.86TR 38.799  43.140 10  G                 3.60MDISK             366005.F. .3.P........       
 PDE   2001 0104004207.64PR 19.334 -67.078 55                    3.60MDRSPR            089005... .3.P........       
 PDE   2001 0104012038.60GR 37.660  26.860 11                    4.10MDATH  4.00MDISK  369028... .3.P........       
 PDE   2001 0104032821.44ES 36.727  -3.206  0  G                 2.50LgMDD             385005... .3.P........       
 PDE   2001 0104035011.44*  -8.403 108.374 33  N  1.015.319                            277046... .1.P........       
 PDE   2001 0104040304.29*  21.172  98.454 64  *  0.594.411                            296011... .1.P........       
 PDE   2001 0104041531.89ES 42.756  -9.680 37                                          377010... .0.P........       
 PDE   2001 0104041821.43   36.981 138.629 21     0.785.5924.8Z445.30MwHRV             2272405.. M3.P........       
 PDE   2001 0104052943   BW 49.380   6.940  1  G                 3.20MLLDG  2.70MLVIE  543040... .3.P........       
 PDE   2001 0104071546.87PR 17.656 -67.137 44                    2.90MDRSPR            089006... .3.P........       
 PDE   2001 0104083007.41TT 14.176 -60.947 16                    2.60MDTRN             095006... .3.P........       
 PDE   2001 0104093636.40GR 37.540  23.420113                                          368013... .0.P........       
 PDE   2001 0104110132.29*   6.874 127.177 33  N  0.844.7 7                            248013... .1.P........       
 PDE   2001 0104122249   P  36.505-117.909  6  G                 3.10MLPAS             040023... .3.P........       
 PDE   2001 0104122331.10P  36.494-117.922  5                    3.40MLPAS             040008... .3.P........       
 PDE   2001 0104123410.17ES 35.922  -4.599 98                                          385010... .0.P........       
 PDE   2001 0104134109   GU-32.099 -71.756  0                    3.70MDGUC             135010... .3.P........       
 PDE   2001 0104142242.70GU-32.064 -71.826  8                    3.70MDGUC             135006... .3.P........       
 PDE   2001 0104143648.24?  50.507-174.885 33  N  1.274.2 6                            007008... .1.P........       
 PDE   2001 0104150200.70AC 59.515-146.357 15                    2.70MLAEIC            015022... .3.P........       
 PDE   2001 0104152656.13*  -5.875 103.224 33  N  0.814.7 7                            274013... .1.P........       
 PDE   2001 0104154229.48PR 19.942 -67.395 75                    3.50MDRSPR            089004... .3.P........       
 PDE   2001 0104154652.90NZ-38.050 178.790 43         4.5 4      4.70MLWEL             160035... .3.P........       
 PDE   2001 0104161053.70GU-32.043 -70.318116                    3.70MDGUC             127013... .3.P........       
 PDE   2001 0104164939.26?  -0.881 -14.297 10  G  1.194.818                            407025... .1.P........       
 PDE   2001 0104170137.97*  -4.331 152.442 33  N  0.754.7 5                            192008... .1.P........       
 PDE   2001 0104172727.92   63.175-151.522 10  G  0.73           3.90MLPMR  3.30MLAEIC 001028... .3.P........       
 PDE   2001 0104174435.73*   6.178 127.090 33  N  1.054.811                            248016... .1.P........       
 PDE   2001 0104193924.58    6.785 126.836 33  N  1.245.022                            259033... .1.P........       
 PDE   2001 0104211333.27   12.746 -88.598 93  *  1.054.413      4.50MDCASC            076040... .3.P........       
 PDE   2001 0104212328.82% -28.974 123.898 10  G  1.11           3.50MLAUST            590008... .3.P........       
 PDE   2001 0104213159.71ST 43.060  -0.770 10  G                 3.30MLLDG  3.10MLSTR  3780474F. .3.P........       
 PDE   2001 0104213853.70FR 43.113  -0.610  2                    2.60MLLDG  2.60LgMDD  3780123F. .3.P........       
 PDE   2001 0104222059.53   38.954  14.746312     1.084.634                            398218... .1.P........       
 PDE   2001 0104233749.10FR 45.168   5.738  2                    2.30MLLDG             538007... .3.P........       
 PDE   2001 0105000810.87  -32.844 179.765300  G  1.134.514                            179035... .1.P........       
 PDE   2001 0105002122.82AC 62.281-149.527 40                    2.70MLPMR  2.60MLAEIC 001025... .3.P........       
 PDE   2001 0105011727.45NC 37.520-118.825  7                    2.80MDNC              040007... .3.P........       
 PDE   2001 0105014200.43*   6.839 126.958 33  N  1.104.817                            259025... .1.P........       
 PDE   2001 0105014251   U  36.960-111.970  0                    2.80MLSLC             495009... .3.P........       
 PDE   2001 0105030445.71TT 10.368 -60.957 50                    2.50MDTRN             098004... .3.P........       
 PDE   2001 0105040545.37  -15.261-173.664 33  N  0.984.726                            173055... .1.P........       
 PDE   2001 0105053046   NZ-38.720 175.790184                                          159016... .0.P........       
 PDE   2001 0105053437.58   17.370 147.160 33  N  1.074.922                            215047... .1.P........       
 PDE   2001 0105062137.38?  17.327 147.191 58  ?  1.064.5 9                            215015... .1.P........       
 PDE   2001 0105071201.94ES 35.843  -4.751120                                          385009... .0.P........       
 PDE   2001 0105075018.29PR 18.799 -65.146 25                    3.40MDRSPR            090008... .3.P........       
 PDE   2001 0105080646.77   16.113 -61.034 33  N  0.715.2684.6Z695.70MwHRV             092183.F. M3.P........       
 PDE   2001 0105081150.60NZ-38.410 176.200184                                          159012... .0.P........       
 PDE   2001 0105082252.20NZ-38.840 175.550183                                          159014... .0.P........       
 PDE   2001 0105092251.48ST 43.060  -0.260 10  G                 3.60MLLDG  3.00MLSTR  3780464F. .3.P........       
 PDE   2001 0105094447.60GU-33.117 -70.155114                    3.20MDGUC             127012... .3.P........       
 PDE   2001 0105114009.56* -17.582 -13.568 10  G  1.385.2155.0Z445.30MwHRV             410024... M3.P........       
 PDE   2001 0105115413.68   -0.657 -22.074 10  G  0.935.1394.7Z 55.50MwHRV             406078... M3.P........       
 PDE   2001 0105120030.12ES 42.808  -7.221  0  G                 3.50MLLDG  3.10LgMDD  3770313F. .3.P........       
 PDE   2001 0105120412.91ES 42.790  -7.254  0  G                 3.00LgMDD             3770082F. .3.P........       
 PDE   2001 0105120550.49ES 42.762  -7.251  0  G                 2.90LgMDD             3770132F. .3.P........       
 PDE   2001 0105121748   GR 38.490  25.050  9                    3.50MDATH  2.90MLTHE  365018... .3.P........       
 PDE   2001 0105132434.52ES 41.304   1.725  0  G                 2.60MLLDG  2.30LgMDD  377006... .3.P........       
 PDE   2001 0105135624.98   42.684-111.087  5  G  1.14           3.00MLGS              457021.F. .3.P........       
 PDE   2001 0105135807.65*  -5.777 153.127 56  *  1.124.918                            190027... .1.P........       
 PDE   2001 0105150835.81ES 36.429  -7.625 30  G                 2.60LgMDD             385015... .3.P........       
 PDE   2001 0105152629.77* -21.076-179.324686  ?  0.914.316                            181039... .1.P........       
 PDE   2001 0105154652.50NC 40.350-124.616 23                    3.40MLBRK  3.30MDNC   035018... .3.P........       
 PDE   2001 0105160503.26* -37.569 145.976 10  G  0.81           2.80MLAUST            603005... .3.P........       
 PDE   2001 0105162633.90NZ-43.070 173.520 12                    3.70MLWEL             164014... .3.P........       
 PDE   2001 0105164707.90NZ-43.090 173.620 12                    3.70MLWEL             164011... .3.P........       
 PDE   2001 0105170300.33*   6.827 -72.937162     1.004.2 5                            099013... .1.P........       
 PDE   2001 0105170441.10NZ-38.920 175.170216                                          159018... .0.P........       
 PDE   2001 0105172843.20GR 38.270  25.270 35                    3.20MDATH             365007... .3.P........       
 PDE   2001 0105191833.76AC 59.812-152.458 76                                          002033... .0.P........       
 PDE   2001 0105193341.18* -20.279 179.445481  ?  0.594.211                            171030... .1.P........       
 PDE   2001 0105193956.50GU-32.652 -71.479 15                    3.60MDGUC             135010... .3.P........       
 PDE   2001 0105202629.20NZ-39.280 175.570  4                    2.20MLWEL             159007... .3.P........       
 PDE   2001 0105212328.73TT 10.789 -62.438 31                    3.20MDTRN             097005... .3.P........       
 PDE   2001 0105212550.70MX 16.912 -99.557  0                    3.90MDUNM             058004... .3.P........       
 PDE   2001 0105225153.36    6.917 126.842 83  *  1.385.130      5.50MwHRV             259068... M3.P........       
 PDE   2001 0105231018.08TH 41.789  22.865  0                    2.30MLTHE             383005... .3.P........       
 PDE   2001 0105232356.07    6.903 126.910 94  ?  0.964.820                            259031... .1.P........       
 PDE   2001 0105232515.53R  37.962-117.639  8                    2.90MLREN             040013... .3.P........       
 PDE   2001 0106004049.70GU-33.622 -71.694 56                    3.30MDGUC             135012... .3.P........       
 PDE   2001 0106005232.50MX 16.928-100.241 59                    4.00MDUNM             058011... .3.P........       
 PDE   2001 0106015908.52? -33.667-176.096 33  N  1.374.7 7                            179019... .1.P........       
 PDE   2001 0106020011   GU-32.948 -72.051 49                    4.50MDGUC             1340144F. .3.P........       
 PDE   2001 0106024809.82   35.349 137.012 44  D 71.054.823                            2270484.. .1.P........       
 PDE   2001 0106033124   BW 49.160   6.870  1  G                 2.90MDLDG  2.30MLFBB  543019... .3.P........       
 PDE   2001 0106040323.31*   5.766 127.320 82  ?  1.205.023                            248031... .1.P........       
 PDE   2001 0106044529.09    6.772 126.867 33  N  0.895.5485.3Z585.60MwGS   5.60MwHRV  259113.F. M3.P........       
 PDE   2001 0106044653.11*  51.241  15.798  5  G  0.83           2.70MLVIE  2.00MLBRG  548010... .3.P........       
 PDE   2001 0106051109.90GU-40.511 -71.781138                    4.20MDGUC             145014... .3.P........       
 PDE   2001 0106053126.33*  70.012   6.703 10  G  1.174.412                            642022... .1.P........       
 PDE   2001 0106053341.40GU-32.755 -69.025157                    2.90MDGUC             139008... .3.P........       
 PDE   2001 0106060726.86*  -5.409 153.252 33  N  1.504.5 9                            190014... .1.P........       
 PDE   2001 0106065613.17ST 43.130  -1.040  2  G                 2.10MLSTR             378004... .3.P........       
 PDE   2001 0106073214.90MX 17.360-101.427 42                    4.00MDUNM             058009... .3.P........       
 PDE   2001 0106075439.18AC 62.336-149.336 48                    2.80MLPMR  2.50MLAEIC 001034... .3.P........       
 PDE   2001 0106092536.88   51.372-174.930 33  N  1.044.742      4.80MLPMR             007092... .3.P........       
 PDE   2001 0106092711.40NZ-38.410 178.930 88                    4.10MLWEL             160015... .3.P........       
 PDE   2001 0106093803.11   51.327-174.836 33  N  0.994.524                            007041... .1.P........       
 PDE   2001 0106095227.08   16.356 -97.820 33  N  1.074.636      4.80MDUNM             060098... .3.P........       
 PDE   2001 0106124706.58*  19.045 -65.044 33  N  0.424.1 2      4.30MDRSPR            090014... .3.P........       
 PDE   2001 0106131419.32GE 43.897   7.691  5                    1.70MLGEN             379005... .3.P........       
 PDE   2001 0106141422.27GE 44.454   7.258 14                    2.20MLGEN             545010... .3.P........       
 PDE   2001 0106142522.79PR 19.603 -65.142 25                    3.50MDRSPR            090005... .3.P........       
 PDE   2001 0106150657.10MX 15.856 -97.674 81                    4.10MDUNM             066005... .3.P........       
 PDE   2001 0106151007.95  -11.667 166.658234  ?  0.964.624                            184068... .1.P........       
 PDE   2001 0106151840.80GU-32.269 -69.121 17                    3.80MDGUC             139010... .3.P........       
 PDE   2001 0106153047.16TH 38.982  23.357  5                    2.40MLTHE             364006... .3.P........       
 PDE   2001 0106155531.95    5.846 127.349 53  ?  1.345.2255.5Z475.70MwHRV             248046... M3.P........       
 PDE   2001 0106164001.11*  36.052 141.627 33  N  1.204.510                            2280152.. .1.P........       
 PDE   2001 0106165444.20GU-34.957 -71.711 52                    3.60MDGUC             135006... .3.P........       
 PDE   2001 0106172125.66AC 63.903-150.156 14                    2.90MLPMR  2.40MLAEIC 001008... .3.P........       
 PDE   2001 0106173802.50AC 61.167-149.846 15                    3.20MLPMR  2.70MLAEIC 002045... .3.P........       
 PDE   2001 0106180418   GU-32.235 -68.027257                    3.60MDGUC             139009... .3.P........       
 PDE   2001 0106191610.90NZ-40.590 173.400163                                          163020... .0.P........       
 PDE   2001 0106195246.80GR 38.260  22.040  5                    3.00MDATH             364005... .3.P........       
 PDE   2001 0106195620      17.735 -62.113 48  D 40.694.715                            092056.F. .1.P........       
 PDE   2001 0106202027.61*  51.193  15.820  5  G  1.00           3.10MLVIE  2.80MLGRF  548010... .3.P........       
 PDE   2001 0106202540.40GR 34.870  25.800  5                    3.90MDATH             370009... .3.P........       
 PDE   2001 0106205447.87AC 57.954-156.001141         2.9 1                            012063... .1.P........       
 PDE   2001 0106205547.28*  46.586  12.802 10  G  0.91           1.70MLVIE             545006... .3.P........       
 PDE   2001 0106211741.62   34.166  25.282 45  *  1.194.0 5      4.20MDATH             370032... .3.P........       
 PDE   2001 0106212704.50GR 34.990  25.760 12         4.1 5      4.30MDATH             370029... .3.P........       
 PDE   2001 0106215132.10GR 34.990  25.840  5                    3.90MDATH             370008... .3.P........       
 PDE   2001 0106220024.44*  44.067  17.595 10  G  0.70                                 383007... .0.P........       
 PDE   2001 0106220313.50GR 35.030  25.750  9                    3.70MDATH             370008... .3.P........       
 PDE   2001 0106220635.70FR 43.036  -0.229  2                    2.60MLLDG  2.40LgMDD  378014... .3.P........       
 PDE   2001 0106234719.10MX 16.093 -96.798 22                    4.00MDUNM             060005... .3.P........       